data_FePO4

_cell_length_a   10.41176687
_cell_length_b   6.06717188
_cell_length_c   4.75948954
_cell_angle_alpha   90.0
_cell_angle_beta   90.0
_cell_angle_gamma   90.0
_space_group_name_H-M_alt   'P b n m'

loop_
 _atom_site_label
 _atom_site_type_symbol
 _atom_site_occupancy
 _atom_site_fract_x
 _atom_site_fract_y
 _atom_site_fract_z
 _atom_site_adp_type
 _atom_site_U_iso_or_equiv
  Fe1  Fe  1.0  0.218728  0.75  0.474867  Uiso  0.0
  Fe2  Fe  1.0  0.281272  0.25  0.974867  Uiso  0.0
  Fe3  Fe  1.0  0.718728  0.75  0.025133  Uiso  0.0
  Fe4  Fe  1.0  0.781272  0.25  0.525133  Uiso  0.0
  P5  P  1.0  0.094613  0.25  0.418243  Uiso  0.0
  P6  P  1.0  0.405387  0.75  0.918243  Uiso  0.0
  P7  P  1.0  0.594613  0.25  0.081757  Uiso  0.0
  P8  P  1.0  0.905387  0.75  0.581757  Uiso  0.0
  O9  O  1.0  0.043372  0.75  0.707138  Uiso  0.0
  O10  O  1.0  0.096642  0.25  0.74132  Uiso  0.0
  O11  O  1.0  0.16571  0.046072  0.285384  Uiso  0.0
  O12  O  1.0  0.16571  0.453928  0.285384  Uiso  0.0
  O13  O  1.0  0.33429  0.546072  0.785384  Uiso  0.0
  O14  O  1.0  0.33429  0.953928  0.785384  Uiso  0.0
  O15  O  1.0  0.403358  0.75  0.24132  Uiso  0.0
  O16  O  1.0  0.456628  0.25  0.207138  Uiso  0.0
  O17  O  1.0  0.543372  0.75  0.792862  Uiso  0.0
  O18  O  1.0  0.596642  0.25  0.75868  Uiso  0.0
  O19  O  1.0  0.66571  0.046072  0.214616  Uiso  0.0
  O20  O  1.0  0.66571  0.453928  0.214616  Uiso  0.0
  O21  O  1.0  0.83429  0.546072  0.714616  Uiso  0.0
  O22  O  1.0  0.83429  0.953928  0.714616  Uiso  0.0
  O23  O  1.0  0.903358  0.75  0.25868  Uiso  0.0
  O24  O  1.0  0.956628  0.25  0.292862  Uiso  0.0
